2024-02-08T11:45:58,637  INFO Gbl:64 JVM: 19.0.1; Oracle Corporation; mixed mode, sharing; 64-bit
2024-02-08T11:45:58,637  INFO Gbl:68 OS: Windows 11; 10.0; amd64
2024-02-08T11:45:58,637  INFO Gbl:71 CPU cores: 8
2024-02-08T11:45:58,639  INFO Gbl:72 max. Memory: 4026.0MB (4221566976B)
2024-02-08T11:45:58,640  INFO Gbl:114 MATSim-Build: rf110e47b96aac32abbf05e9f00f0d036b33fcdaf (2024-01-10 21:36:08)
2024-02-08T11:45:58,640  INFO Gbl:76 Command: org.matsim.codeexamples.extensions.freight.RunFreightFoodRetailingBerlinExample
2024-02-08T11:45:58,643  INFO ControlerListenerManagerImpl:112 calling notifyStartup on org.matsim.core.controler.ControlerDefaultsModule$1 with priority 0.0
2024-02-08T11:45:58,644  INFO MemoryObserver:42 used RAM: 683 MB  free: 502 MB  total: 1186 MB
2024-02-08T11:45:58,703  INFO ControlerListenerManagerImpl:112 calling notifyStartup on org.matsim.guice.DependencyGraphControlerListener with priority 0.0
2024-02-08T11:45:58,794  INFO ControlerListenerManagerImpl:112 calling notifyStartup on org.matsim.counts.CountsControlerListener with priority 0.0
2024-02-08T11:45:58,794  INFO ControlerListenerManagerImpl:112 calling notifyStartup on org.matsim.analysis.ModeStatsControlerListener with priority 0.0
2024-02-08T11:45:58,794  INFO ControlerListenerManagerImpl:112 calling notifyStartup on org.matsim.analysis.ScoreStatsControlerListener with priority 0.0
2024-02-08T11:45:58,795  INFO ControlerListenerManagerImpl:115 all ControlerStartupListeners called.
2024-02-08T11:45:58,795  INFO ControlerUtils:79 config dump before iterations start
2024-02-08T11:45:58,834  INFO ControlerUtils:83 

<?xml version="1.0" encoding="UTF-8"?>
<!DOCTYPE config SYSTEM "http://www.matsim.org/files/dtd/config_v2.dtd">
<config>
	<module name="changeMode" >
		<!-- Defines whether car availability is considered be considered or not. An agent has no car only if it has no license, or never access to a car. Default: true -->
		<param name="ignoreCarAvailability" value="true" />
		<!-- Defines the mode switch behavior. Possible values [fromAllModesToSpecifiedModes, fromSpecifiedModesToSpecifiedModes] Default: fromSpecifiedModesToSpecifiedModes. -->
		<param name="modeSwitchBehavior" value="fromSpecifiedModesToSpecifiedModes" />
		<!-- Defines all the modes available, including chain-based modes, seperated by commas -->
		<param name="modes" value="car,pt" />
	</module>
	<module name="controller" >
		<!-- Defines what should be done with the ITERS directory when a simulation finished successfully -->
		<param name="cleanItersAtEnd" value="keep" />
		<!-- Compression algorithm to use when writing out data to files. Possible values: [none, gzip, lz4, zst] -->
		<param name="compressionType" value="gzip" />
		<!-- Sets the interval in which graphs are generated. Default is 1. If set to 0, no graphs are generated. The generation of graphs usually takes a small amount of time that does not have any weight in big simulations, but add a significant overhead in smaller runs or in test cases where the graphical output is not even requested. -->
		<param name="createGraphsInterval" value="1" />
		<!-- Defines when the scoring functions for the population are created. Default=IterationStarts. Possible values: [IterationStarts, BeforeMobsim] -->
		<param name="createScoringFunctionType" value="IterationStarts" />
		<!-- true if at the end of a run, plans, network, config etc should be dumped to a file -->
		<param name="dumpDataAtEnd" value="true" />
		<!-- Default=false. If enabled, the router takes travel times needed for turning moves into account. Can only be used with Dijkstra routing. Cannot be used when TravelTimeCalculator.separateModes is enabled. -->
		<param name="enableLinkToLinkRouting" value="false" />
		<!-- Default=xml; Specifies the file format for writing events. Currently supported: [xml, pb, json]
		Multiple values can be specified separated by commas (','). -->
		<param name="eventsFileFormat" value="xml" />
		<!-- Default=0. First Iteration of a simulation. -->
		<param name="firstIteration" value="0" />
		<!-- Default=1000. Last Iteration of a simulation. -->
		<param name="lastIteration" value="0" />
		<!-- Defines which mobility simulation will be used. Currently supported: [qsim, JDEQSim, hermes]
		Depending on the chosen mobsim, you'll have to add additional config modules to configure the corresponding mobsim.
		For 'qsim', add a module 'qsim' to the config. -->
		<param name="mobsim" value="qsim" />
		<param name="outputDirectory" value="./output/freightDashboard" />
		<!-- Possible values: failIfDirectoryExists,overwriteExistingFiles,deleteDirectoryIfExists -->
		<param name="overwriteFiles" value="deleteDirectoryIfExists" />
		<!-- The type of routing (least cost path) algorithm used, may have the values: [Dijkstra, AStarLandmarks, SpeedyALT] -->
		<param name="routingAlgorithmType" value="SpeedyALT" />
		<!-- An identifier for the current run which is used as prefix for output files and mentioned in output xml files etc. -->
		<param name="runId" value="null" />
		<!-- Comma-separated list of visualizer output file formats. `transims' and `otfvis'. -->
		<param name="snapshotFormat" value="" />
		<!-- iterationNumber % writeEventsInterval == 0 defines in which iterations events are written to a file. `0' disables events writing completely. -->
		<param name="writeEventsInterval" value="50" />
		<!-- iterationNumber % writePlansInterval == 0 defines (hopefully) in which iterations plans are written to a file. `0' disables plans writing completely.  Some plans in early iterations are always written -->
		<param name="writePlansInterval" value="50" />
		<!-- iterationNumber % writeSnapshotsInterval == 0 defines in which iterations snapshots are written to a file. `0' disables snapshots writing completely -->
		<param name="writeSnapshotsInterval" value="1" />
		<!-- iterationNumber % writeEventsInterval == 0 defines in which iterations trips CSV are written to a file. `0' disables trips writing completely. -->
		<param name="writeTripsInterval" value="50" />
	</module>
	<module name="counts" >
		<!-- Transport modes that will be respected for the counts comparison. 'car' is default, which includes also bussed from the pt simulation module. Use this parameter in combination with 'filterModes' = true! -->
		<param name="analyzedModes" value="car" />
		<!-- Specifies over how many iterations the link volumes should be averaged that are used for the counts comparison. Use 1 or 0 to only use the link volumes of a single iteration. This values cannot be larger than the value specified for writeCountsInterval -->
		<param name="averageCountsOverIterations" value="5" />
		<!-- factor by which to re-scale the simulated values.  necessary when simulation runs with something different from 100%.  needs to be adapted manually -->
		<param name="countsScaleFactor" value="1.0" />
		<!-- distance to distanceFilterCenterNode to include counting stations. The unit of distance is the Euclidean distance implied by the coordinate system -->
		<param name="distanceFilter" value="null" />
		<!-- node id for center node of distance filter -->
		<param name="distanceFilterCenterNode" value="null" />
		<!-- If true, link counts from legs performed on modes not included in the 'analyzedModes' parameter are ignored. -->
		<param name="filterModes" value="false" />
		<!-- The Coordinates Reference System in which the coordinates are expressed in the input file. At import, the coordinates will be converted to the coordinate system defined in "global", and willbe converted back at export. If not specified, no conversion happens. -->
		<param name="inputCRS" value="null" />
		<!-- input file name to counts package -->
		<param name="inputCountsFile" value="null" />
		<!-- possible values: `html', `txt', `all' -->
		<param name="outputformat" value="txt" />
		<!-- Specifies how often the counts comparison should be calculated and written. -->
		<param name="writeCountsInterval" value="10" />
	</module>
	<module name="eventsManager" >
		<!-- Estimated number of events during mobsim run. An optional optimization hint for the framework. -->
		<param name="estimatedNumberOfEvents" value="null" />
		<!-- Size of the events Queue. Increase for very large scenarios -->
		<param name="eventsQueueSize" value="131072" />
		<!-- Number of threads for parallel events handler. _null_ means the framework decides by itself. 0 is currently not possible. -->
		<param name="numberOfThreads" value="null" />
		<!-- If enabled, each event handler is assigned to its own thread. Note that enabling this feature disabled the numberOfThreads option! This feature is still experimental! -->
		<param name="oneThreadPerHandler" value="false" />
		<!-- If enabled, it is ensured that all events that are created during a time step of the mobility simulation are processed before the next time step is simulated. E.g. neccessary when within-day replanning is used. -->
		<param name="synchronizeOnSimSteps" value="true" />
	</module>
	<module name="facilities" >
		<!-- This defines how facilities should be created. Possible values: none fromFile setInScenario onePerActivityLinkInPlansFile onePerActivityLinkInPlansFileExceptWhenCoordinatesAreGiven onePerActivityLocationInPlansFile  -->
		<param name="facilitiesSource" value="none" />
		<!-- A prefix to be used for auto-generated IDs. -->
		<param name="idPrefix" value="f_auto_" />
		<!-- The Coordinates Reference System in which the coordinates are expressed in the input file. At import, the coordinates will be converted to the coordinate system defined in "global", and willbe converted back at export. If not specified, no conversion happens. -->
		<param name="inputCRS" value="null" />
		<param name="inputFacilitiesFile" value="null" />
		<param name="inputFacilityAttributesFile" value="null" />
		<param name="insistingOnUsingDeprecatedFacilitiesAttributeFile" value="false" />
	</module>
	<module name="freightCarriers" >
		<!-- Freight Carriers File, according to MATSim freight contrib -->
		<param name="carriersFile" value="https://svn.vsp.tu-berlin.de/repos/public-svn/matsim/scenarios/countries/de/berlin/projects/freight/foodRetailing_wo_rangeConstraint/input/CarrierLEH_v2_withFleet_Shipment_OneTW_PickupTime_ICEV.xml" />
		<!-- Carrier Vehicle Types file, according to MATSim freight contrib -->
		<param name="carriersVehicleTypeFile" value="https://svn.vsp.tu-berlin.de/repos/public-svn/matsim/scenarios/countries/de/berlin/projects/freight/foodRetailing_wo_rangeConstraint/input/vehicleTypesBVWP100_DC_noTax.xml" />
		<!-- time slice width used for calculation of travel times in seconds. The smaller the value, the more precise the calculation of routing costs but the longer the computation time. Default value is 1800 seconds. -->
		<param name="travelTimeSliceWidth" value="1800" />
		<!-- Use distance constraint within the tour planning phase. This does NOT ensure that the tours in MATSim will respect this limitation -->
		<param name="useDistanceConstraintForTourPlanning" value="noDistanceConstraint" />
		<!-- (Optional) Vehicle Routing Algorithm File, according to jsprit library. Empty value "" means a default algorithm is used. -->
		<param name="vehicleRoutingAlgorithmFile" value="null" />
	</module>
	<module name="global" >
		<param name="coordinateSystem" value="EPSG:31468" />
		<param name="defaultDelimiter" value=";" />
		<param name="insistingOnDeprecatedConfigVersion" value="true" />
		<!-- "global" number of threads.  This number is used, e.g., for replanning, but NOT in QSim.  This can typically be set to as many cores as you have available, or possibly even slightly more. -->
		<param name="numberOfThreads" value="2" />
		<param name="randomSeed" value="4711" />
	</module>
	<module name="hermes" >
		<!-- Simulation End Time -->
		<param name="endTime" value="30:00:00" />
		<param name="flowCapacityFactor" value="1.0" />
		<param name="mainMode" value="car" />
		<param name="storageCapacityFactor" value="1.0" />
		<!-- time in seconds.  Time after which the frontmost vehicle on a link is called `stuck' if it does not move. Set to Integer.MAX_VALUE to disable this behavior -->
		<param name="stuckTime" value="10" />
		<!-- treats PT as deterministic. PT vehicles will run with a steady speed. Should be used with separate network layers for PT and other network modes. -->
		<param name="useDeterministicPt" value="false" />
	</module>
	<module name="households" >
		<param name="inputFile" value="null" />
		<param name="inputHouseholdAttributesFile" value="null" />
		<param name="insistingOnUsingDeprecatedHouseholdsAttributeFile" value="false" />
	</module>
	<module name="jdeqsim" >
		<param name="carSize" value="7.5" />
		<param name="endTime" value="undefined" />
		<param name="flowCapacityFactor" value="1.0" />
		<param name="gapTravelSpeed" value="15.0" />
		<param name="minimumInFlowCapacity" value="1800.0" />
		<param name="squeezeTime" value="1800.0" />
		<param name="storageCapacityFactor" value="1.0" />
	</module>
	<module name="linkStats" >
		<!-- Specifies over how many iterations the link volumes should be averaged that are used for the link statistics. Use 1 or 0 to only use the link volumes of a single iteration. This values cannot be larger than the value specified for writeLinkStatsInterval -->
		<param name="averageLinkStatsOverIterations" value="5" />
		<!-- Specifies how often the link stats should be calculated and written. Use 0 to disable the generation of link stats. -->
		<param name="writeLinkStatsInterval" value="50" />
	</module>
	<module name="network" >
		<!-- The Coordinates Reference System in which the coordinates are expressed in the input file. At import, the coordinates will be converted to the coordinate system defined in "global", and willbe converted back at export. If not specified, no conversion happens. -->
		<param name="inputCRS" value="null" />
		<param name="inputChangeEventsFile" value="null" />
		<param name="inputNetworkFile" value="input/berlin-v5.5.3-10pct.output_network.xml" />
		<param name="laneDefinitionsFile" value="null" />
		<param name="timeVariantNetwork" value="false" />
	</module>
	<module name="planInheritance" >
		<!-- Specifies whether or not PlanInheritance Information should be tracked. -->
		<param name="enabled" value="false" />
	</module>
	<module name="plans" >
		<!-- String: minOfDurationAndEndTime tryEndTimeThenDuration endTimeOnly. Anything besides minOfDurationAndEndTime will internally use a different (simpler) version of the TimeAllocationMutator. -->
		<param name="activityDurationInterpretation" value="tryEndTimeThenDuration" />
		<!-- Possible values: reject,useMainModeIdentifier -->
		<param name="handlingOfPlansWithoutRoutingMode" value="reject" />
		<!-- The Coordinates Reference System in which the coordinates are expressed in the input file. At import, the coordinates will be converted to the coordinate system defined in "global", and willbe converted back at export. If not specified, no conversion happens. -->
		<param name="inputCRS" value="null" />
		<param name="inputPersonAttributesFile" value="null" />
		<param name="inputPlansFile" value="null" />
		<param name="insistingOnUsingDeprecatedPersonAttributeFile" value="false" />
		<!-- Defines how routes are stored in memory. Currently supported: LinkNetworkRoute, MediumCompressedNetworkRoute, HeavyCompressedNetworkRoute. -->
		<param name="networkRouteType" value="LinkNetworkRoute" />
		<!-- (not tested) will remove plan attributes that are presumably not used, such as activityStartTime. default=false. Use with Caution! -->
		<param name="removingUnnecessaryPlanAttributes" value="false" />
		<!-- Defines how departure times are interpreted in rerouting applications. If set to 'ignoreDelays', the departure time of a trip when routing along a plan will always be the nominal (plan-based) activity end time. If set to 'shiftActivityEndTimes', routing along a plan will accumulate travel times and shift activity end times if necessary -->
		<param name="tripDurationHandling" value="ignoreDelays" />
	</module>
	<module name="qsim" >
		<param name="endTime" value="undefined" />
		<!-- If set to withLinkAttributes snapshots will only be generated for links which include generateSnapshotForLink as attribute key. Default is no filtering. -->
		<param name="filterSnapshots" value="no" />
		<param name="flowCapacityFactor" value="1.0" />
		<!-- decides if waiting vehicles enter the network after or before the already driving vehicles were moved. Default: false -->
		<param name="insertingWaitingVehiclesBeforeDrivingVehicles" value="true" />
		<!-- If link dynamics is set as SeepageQ, set to false if all seep modes should perform seepage. Default is true (better option). -->
		<param name="isRestrictingSeepage" value="true" />
		<!-- If link dynamics is set as SeepageQ, set to true if seep mode do not consumes any space on the link. Default is false. -->
		<param name="isSeepModeStorageFree" value="false" />
		<!-- default: FIFO; options: FIFO PassingQ SeepageQ -->
		<param name="linkDynamics" value="FIFO" />
		<!-- The (initial) width of the links of the network. Use positive floating point values. This is used only for visualisation. -->
		<param name="linkWidth" value="30.0" />
		<!-- [comma-separated list] Defines which modes are congested modes. Technically, these are the modes that the departure handler of the netsimengine handles.  Effective cell size, effective lane width, flow capacity factor, and storage capacity factor need to be set with diligence.  Need to be vehicular modes to make sense. -->
		<param name="mainMode" value="car" />
		<!-- Shortens a link in the visualization, i.e. its start and end point are moved into towards the center. Does not affect traffic flow.  -->
		<param name="nodeOffset" value="0.0" />
		<!-- Number of threads used for the QSim.  Note that this setting is independent from the "global" threads setting.  In contrast to earlier versions, the non-parallel special version is no longer there. -->
		<param name="numberOfThreads" value="1" />
		<!-- Boolean. `true': stuck vehicles are removed, aborting the plan; `false': stuck vehicles are forced into the next link. `false' is probably the better choice. -->
		<param name="removeStuckVehicles" value="false" />
		<!-- If link dynamics is set as SeepageQ, set a seep mode. Default is bike. -->
		<param name="seepMode" value="bike" />
		<!-- Possible values: minOfEndtimeAndMobsimFinished,onlyUseEndtime -->
		<param name="simEndtimeInterpretation" value="null" />
		<!-- Options: maxOfStarttimeAndEarliestActivityEnd onlyUseStarttime  -->
		<param name="simStarttimeInterpretation" value="maxOfStarttimeAndEarliestActivityEnd" />
		<!-- snapshotStyle. One of: equiDist queue withHoles withHolesAndShowHoles kinematicWaves  -->
		<param name="snapshotStyle" value="queue" />
		<param name="snapshotperiod" value="00:00:00" />
		<param name="startTime" value="undefined" />
		<param name="storageCapacityFactor" value="1.0" />
		<!-- time in seconds.  Time after which the frontmost vehicle on a link is called `stuck' if it does not move. -->
		<param name="stuckTime" value="10.0" />
		<param name="timeStepSize" value="00:00:01" />
		<!-- options: queue withHoles kinematicWaves  -->
		<param name="trafficDynamics" value="queue" />
		<!-- Set this parameter to true if lanes should be used, false if not. -->
		<param name="useLanes" value="false" />
		<!-- If a route does not reference a vehicle, agents will use the vehicle with the same id as their own. -->
		<param name="usePersonIdForMissingVehicleId" value="true" />
		<!-- If false, the qsim accumulates fractional flows up to one flow unit in every time step.  If true, flows are updated only if an agent wants to enter the link or an agent is added to buffer. Default is true. -->
		<param name="usingFastCapacityUpdate" value="true" />
		<!-- Defines what happens if an agent wants to depart, but the specified vehicle is not available. One of: teleport wait exception  -->
		<param name="vehicleBehavior" value="teleport" />
		<!-- If vehicles should all be the same default vehicle, or come from the vehicles file, or something else.  Possible values:  defaultVehicle modeVehicleTypesFromVehiclesData fromVehiclesData -->
		<param name="vehiclesSource" value="defaultVehicle" />
	</module>
	<module name="replanning" >
		<!-- the external executable will be called with a config file as argument.  This is the pathname to a possible skeleton config, to which additional information will be added.  Can be null. -->
		<param name="ExternalExeConfigTemplate" value="null" />
		<!-- time out value (in seconds) after which matsim will consider the external strategy as failed -->
		<param name="ExternalExeTimeOut" value="3600" />
		<!-- root directory for temporary files generated by the external executable. Provided as a service; I don't think this is used by MATSim. -->
		<param name="ExternalExeTmpFileRootDir" value="null" />
		<!-- fraction of iterations where innovative strategies are switched off.  Something like 0.8 should be good.  E.g. if you run from iteration 400 to iteration 500, innovation is switched off at iteration 480 -->
		<param name="fractionOfIterationsToDisableInnovation" value="Infinity" />
		<!-- maximum number of plans per agent.  ``0'' means ``infinity''.  Currently (2010), ``5'' is a good number -->
		<param name="maxAgentPlanMemorySize" value="5" />
		<!-- strategyName of PlanSelector for plans removal.  Possible defaults: WorstPlanSelector SelectRandom SelectExpBetaForRemoval ChangeExpBetaForRemoval PathSizeLogitSelectorForRemoval . The current default, WorstPlanSelector is not a good choice from a discrete choice theoretical perspective. Alternatives, however, have not been systematically tested. kai, feb'12 -->
		<param name="planSelectorForRemoval" value="WorstPlanSelector" />
	</module>
	<module name="replanningAnnealer" >
		<!-- Activate the scaling of replanning modules using an annealing approach rather than fixed rates. -->
		<param name="activateAnnealingModule" value="false" />
	</module>
	<module name="routing" >
		<!-- Defines how access and egress to main mode is simulated. Either of [none, accessEgressModeToLink, walkConstantTimeToLink, accessEgressModeToLinkPlusTimeConstant], Current default=none which means no access or egress trips are simulated. -->
		<param name="accessEgressType" value="none" />
		<!-- Some typical teleportation routing params are set by default, such as for walk and bike.  Setting this switch to "true" will clear them.  Note that this will also clear settings for helper modes such as for non_network_walk -->
		<param name="clearDefaultTeleportedModeParams" value="false" />
		<!-- All the modes for which the router is supposed to generate network routes (like car) -->
		<param name="networkModes" value="car" />
		<!-- strength of the randomness for the utility of money in routing under toll.  Leads to Pareto-optimal route with randomly drawn money-vs-other-attributes tradeoff. Technically the width parameter of a log-normal distribution. 3.0 seems to be a good value.  -->
		<param name="routingRandomness" value="3.0" />
		<parameterset type="teleportedModeParameters" >
			<param name="beelineDistanceFactor" value="1.3" />
			<param name="mode" value="bike" />
			<!-- Free-speed factor for a teleported mode. Travel time = teleportedModeFreespeedFactor * <freespeed car travel time>. Insert a line like this for every such mode. Please do not set teleportedModeFreespeedFactor as well as teleportedModeSpeed for the same mode, but if you do, +teleportedModeFreespeedFactor wins over teleportedModeSpeed. -->
			<param name="teleportedModeFreespeedFactor" value="null" />
			<!-- Speed for a teleported mode. Travel time = (<beeline distance> * beelineDistanceFactor) / teleportedModeSpeed. Insert a line like this for every such mode. -->
			<param name="teleportedModeSpeed" value="4.166666666666667" />
		</parameterset>
		<parameterset type="teleportedModeParameters" >
			<param name="beelineDistanceFactor" value="1.3" />
			<param name="mode" value="walk" />
			<param name="teleportedModeFreespeedFactor" value="null" />
			<param name="teleportedModeSpeed" value="0.8333333333333333" />
		</parameterset>
		<parameterset type="teleportedModeParameters" >
			<param name="beelineDistanceFactor" value="1.3" />
			<param name="mode" value="non_network_walk" />
			<param name="teleportedModeFreespeedFactor" value="null" />
			<param name="teleportedModeSpeed" value="0.8333333333333333" />
		</parameterset>
		<parameterset type="teleportedModeParameters" >
			<param name="beelineDistanceFactor" value="1.3" />
			<param name="mode" value="ride" />
			<param name="teleportedModeFreespeedFactor" value="1.0" />
			<param name="teleportedModeSpeed" value="null" />
		</parameterset>
		<parameterset type="teleportedModeParameters" >
			<param name="beelineDistanceFactor" value="1.3" />
			<param name="mode" value="pt" />
			<param name="teleportedModeFreespeedFactor" value="2.0" />
			<param name="teleportedModeSpeed" value="null" />
		</parameterset>
	</module>
	<module name="scoring" >
		<!-- logit model scale parameter. default: 1.  Has name and default value for historical reasons (see Bryan Raney's phd thesis). -->
		<param name="brainExpBeta" value="1.0" />
		<!-- fraction of iterations at which MSA score averaging is started. The matsim theory department suggests to use this together with switching off choice set innovation (where a similar switch exists), but it has not been tested yet. -->
		<param name="fractionOfIterationsToStartScoreMSA" value="null" />
		<!-- new_score = (1-learningRate)*old_score + learningRate * score_from_mobsim.  learning rates close to zero emulate score averaging, but slow down initial convergence -->
		<param name="learningRate" value="1.0" />
		<param name="pathSizeLogitBeta" value="1.0" />
		<!-- There used to be a plateau between duration=0 and duration=zeroUtilityDuration. This caused durations to evolve to zero once they were below zeroUtilityDuration, causing problems.  Only use this switch if you need to be backwards compatible with some old results.  (changed nov'13) -->
		<param name="usingOldScoringBelowZeroUtilityDuration" value="false" />
		<!-- write a plans file in each iteration directory which contains what each agent actually did, and the score it received. -->
		<param name="writeExperiencedPlans" value="false" />
		<parameterset type="scoringParameters" >
			<param name="earlyDeparture" value="-0.0" />
			<param name="lateArrival" value="-18.0" />
			<param name="marginalUtilityOfMoney" value="1.0" />
			<param name="performing" value="6.0" />
			<param name="subpopulation" value="null" />
			<param name="utilityOfLineSwitch" value="-1.0" />
			<param name="waiting" value="-0.0" />
			<param name="waitingPt" value="-6.0" />
			<parameterset type="activityParams" >
				<param name="activityType" value="dummy" />
				<param name="closingTime" value="undefined" />
				<param name="earliestEndTime" value="undefined" />
				<param name="latestStartTime" value="undefined" />
				<param name="minimalDuration" value="undefined" />
				<param name="openingTime" value="undefined" />
				<param name="priority" value="1.0" />
				<param name="scoringThisActivityAtAll" value="true" />
				<!-- typical duration of activity.  needs to be defined and non-zero.  in sec. -->
				<param name="typicalDuration" value="02:00:00" />
				<!-- method to compute score at typical duration.  Options: | uniform | relative | Use uniform for backwards compatibility (all activities same score; higher proba to drop long acts). -->
				<param name="typicalDurationScoreComputation" value="relative" />
			</parameterset>
			<parameterset type="activityParams" >
				<param name="activityType" value="car interaction" />
				<param name="closingTime" value="undefined" />
				<param name="earliestEndTime" value="undefined" />
				<param name="latestStartTime" value="undefined" />
				<param name="minimalDuration" value="undefined" />
				<param name="openingTime" value="undefined" />
				<param name="priority" value="1.0" />
				<param name="scoringThisActivityAtAll" value="false" />
				<param name="typicalDuration" value="undefined" />
				<param name="typicalDurationScoreComputation" value="relative" />
			</parameterset>
			<parameterset type="activityParams" >
				<param name="activityType" value="pt interaction" />
				<param name="closingTime" value="undefined" />
				<param name="earliestEndTime" value="undefined" />
				<param name="latestStartTime" value="undefined" />
				<param name="minimalDuration" value="undefined" />
				<param name="openingTime" value="undefined" />
				<param name="priority" value="1.0" />
				<param name="scoringThisActivityAtAll" value="false" />
				<param name="typicalDuration" value="undefined" />
				<param name="typicalDurationScoreComputation" value="relative" />
			</parameterset>
			<parameterset type="activityParams" >
				<param name="activityType" value="bike interaction" />
				<param name="closingTime" value="undefined" />
				<param name="earliestEndTime" value="undefined" />
				<param name="latestStartTime" value="undefined" />
				<param name="minimalDuration" value="undefined" />
				<param name="openingTime" value="undefined" />
				<param name="priority" value="1.0" />
				<param name="scoringThisActivityAtAll" value="false" />
				<param name="typicalDuration" value="undefined" />
				<param name="typicalDurationScoreComputation" value="relative" />
			</parameterset>
			<parameterset type="activityParams" >
				<param name="activityType" value="drt interaction" />
				<param name="closingTime" value="undefined" />
				<param name="earliestEndTime" value="undefined" />
				<param name="latestStartTime" value="undefined" />
				<param name="minimalDuration" value="undefined" />
				<param name="openingTime" value="undefined" />
				<param name="priority" value="1.0" />
				<param name="scoringThisActivityAtAll" value="false" />
				<param name="typicalDuration" value="undefined" />
				<param name="typicalDurationScoreComputation" value="relative" />
			</parameterset>
			<parameterset type="activityParams" >
				<param name="activityType" value="taxi interaction" />
				<param name="closingTime" value="undefined" />
				<param name="earliestEndTime" value="undefined" />
				<param name="latestStartTime" value="undefined" />
				<param name="minimalDuration" value="undefined" />
				<param name="openingTime" value="undefined" />
				<param name="priority" value="1.0" />
				<param name="scoringThisActivityAtAll" value="false" />
				<param name="typicalDuration" value="undefined" />
				<param name="typicalDurationScoreComputation" value="relative" />
			</parameterset>
			<parameterset type="activityParams" >
				<param name="activityType" value="other interaction" />
				<param name="closingTime" value="undefined" />
				<param name="earliestEndTime" value="undefined" />
				<param name="latestStartTime" value="undefined" />
				<param name="minimalDuration" value="undefined" />
				<param name="openingTime" value="undefined" />
				<param name="priority" value="1.0" />
				<param name="scoringThisActivityAtAll" value="false" />
				<param name="typicalDuration" value="undefined" />
				<param name="typicalDurationScoreComputation" value="relative" />
			</parameterset>
			<parameterset type="activityParams" >
				<param name="activityType" value="walk interaction" />
				<param name="closingTime" value="undefined" />
				<param name="earliestEndTime" value="undefined" />
				<param name="latestStartTime" value="undefined" />
				<param name="minimalDuration" value="undefined" />
				<param name="openingTime" value="undefined" />
				<param name="priority" value="1.0" />
				<param name="scoringThisActivityAtAll" value="false" />
				<param name="typicalDuration" value="undefined" />
				<param name="typicalDurationScoreComputation" value="relative" />
			</parameterset>
			<parameterset type="activityParams" >
				<param name="activityType" value="ride interaction" />
				<param name="closingTime" value="undefined" />
				<param name="earliestEndTime" value="undefined" />
				<param name="latestStartTime" value="undefined" />
				<param name="minimalDuration" value="undefined" />
				<param name="openingTime" value="undefined" />
				<param name="priority" value="1.0" />
				<param name="scoringThisActivityAtAll" value="false" />
				<param name="typicalDuration" value="undefined" />
				<param name="typicalDurationScoreComputation" value="relative" />
			</parameterset>
			<parameterset type="modeParams" >
				<!-- [utils] alternative-specific constant.  Normally per trip, but that is probably buggy for multi-leg trips. -->
				<param name="constant" value="0.0" />
				<!-- [unit_of_money/day] Fixed cost of mode, per day. -->
				<param name="dailyMonetaryConstant" value="0.0" />
				<!-- [utils] daily utility constant. default=0 to be backwards compatible -->
				<param name="dailyUtilityConstant" value="0.0" />
				<!-- [utils/m] utility of traveling (e.g. walking or driving) per m, normally negative.  this is on top of the time (dis)utility. -->
				<param name="marginalUtilityOfDistance_util_m" value="0.0" />
				<!-- [utils/hr] additional marginal utility of traveling.  normally negative.  this comes on top of the opportunity cost of time -->
				<param name="marginalUtilityOfTraveling_util_hr" value="-6.0" />
				<param name="mode" value="car" />
				<!-- [unit_of_money/m] conversion of distance into money. Normally negative. -->
				<param name="monetaryDistanceRate" value="0.0" />
			</parameterset>
			<parameterset type="modeParams" >
				<param name="constant" value="0.0" />
				<param name="dailyMonetaryConstant" value="0.0" />
				<param name="dailyUtilityConstant" value="0.0" />
				<param name="marginalUtilityOfDistance_util_m" value="0.0" />
				<param name="marginalUtilityOfTraveling_util_hr" value="-6.0" />
				<param name="mode" value="pt" />
				<param name="monetaryDistanceRate" value="0.0" />
			</parameterset>
			<parameterset type="modeParams" >
				<param name="constant" value="0.0" />
				<param name="dailyMonetaryConstant" value="0.0" />
				<param name="dailyUtilityConstant" value="0.0" />
				<param name="marginalUtilityOfDistance_util_m" value="0.0" />
				<param name="marginalUtilityOfTraveling_util_hr" value="-6.0" />
				<param name="mode" value="walk" />
				<param name="monetaryDistanceRate" value="0.0" />
			</parameterset>
			<parameterset type="modeParams" >
				<param name="constant" value="0.0" />
				<param name="dailyMonetaryConstant" value="0.0" />
				<param name="dailyUtilityConstant" value="0.0" />
				<param name="marginalUtilityOfDistance_util_m" value="0.0" />
				<param name="marginalUtilityOfTraveling_util_hr" value="-6.0" />
				<param name="mode" value="bike" />
				<param name="monetaryDistanceRate" value="0.0" />
			</parameterset>
			<parameterset type="modeParams" >
				<param name="constant" value="0.0" />
				<param name="dailyMonetaryConstant" value="0.0" />
				<param name="dailyUtilityConstant" value="0.0" />
				<param name="marginalUtilityOfDistance_util_m" value="0.0" />
				<param name="marginalUtilityOfTraveling_util_hr" value="-6.0" />
				<param name="mode" value="ride" />
				<param name="monetaryDistanceRate" value="0.0" />
			</parameterset>
			<parameterset type="modeParams" >
				<param name="constant" value="0.0" />
				<param name="dailyMonetaryConstant" value="0.0" />
				<param name="dailyUtilityConstant" value="0.0" />
				<param name="marginalUtilityOfDistance_util_m" value="0.0" />
				<param name="marginalUtilityOfTraveling_util_hr" value="-6.0" />
				<param name="mode" value="other" />
				<param name="monetaryDistanceRate" value="0.0" />
			</parameterset>
		</parameterset>
	</module>
	<module name="subtourModeChoice" >
		<!-- Only for backwards compatibility.  Defines if only trips from modes list should change mode, or all trips.  Options: fromAllModesToSpecifiedModes fromSpecifiedModesToSpecifiedModes betweenAllAndFewerConstraints  -->
		<param name="behavior" value="fromSpecifiedModesToSpecifiedModes" />
		<!-- Defines the chain-based modes, seperated by commas -->
		<param name="chainBasedModes" value="car,bike" />
		<!-- Defines whether car availability must be considered or not. A agent has no car only if it has no license, or never access to a car -->
		<param name="considerCarAvailability" value="false" />
		<!-- If greater than 0, subtours will also consider coordinates to be at the same location when smaller than set distance. -->
		<param name="coordDistance" value="0.0" />
		<!-- Defines all the modes available, including chain-based modes, seperated by commas -->
		<param name="modes" value="car,pt,bike,walk" />
		<!-- Defines the probability of changing a single trip for a unchained mode instead of subtour. -->
		<param name="probaForRandomSingleTripMode" value="0.0" />
	</module>
	<module name="timeAllocationMutator" >
		<!-- Latest Activity End Time. Default = 24:00:00 -->
		<param name="latestActivityEndTime" value="86400.0" />
		<!-- Mutates times only around the initially defined end times. -->
		<param name="mutateAroundInitialEndTimeOnly" value="false" />
		<!-- Default:true; Defines whether time mutation changes an activity's duration. -->
		<param name="mutationAffectsDuration" value="true" />
		<!-- Default:1800.0; Defines how many seconds a time mutation can maximally shift a time. -->
		<param name="mutationRange" value="1800.0" />
		<!-- Mutation Range Step, default = 1 second -->
		<param name="mutationRangeStep" value="1.0" />
	</module>
	<module name="transit" >
		<!-- The Coordinates Reference System in which the coordinates are expressed in the input file. At import, the coordinates will be converted to the coordinate system defined in "global", and willbe converted back at export. If not specified, no conversion happens. -->
		<param name="inputScheduleCRS" value="null" />
		<param name="insistingOnUsingDeprecatedAttributeFiles" value="false" />
		<!-- The type of transit routing algorithm used, may have the values: [DijkstraBased, SwissRailRaptor] -->
		<param name="routingAlgorithmType" value="SwissRailRaptor" />
		<!-- Optional input file containing additional attributes for transit lines, stored as ObjectAttributes. -->
		<param name="transitLinesAttributesFile" value="null" />
		<!-- Comma-separated list of transportation modes that are handled as transit. Defaults to 'pt'. -->
		<param name="transitModes" value="pt" />
		<!-- Input file containing the transit schedule to be simulated. -->
		<param name="transitScheduleFile" value="null" />
		<!-- Optional input file containing additional attributes for transit stop facilities, stored as ObjectAttributes. -->
		<param name="transitStopsAttributesFile" value="null" />
		<!-- Set this parameter to true if transit should be simulated, false if not. -->
		<param name="useTransit" value="false" />
		<param name="usingTransitInMobsim" value="true" />
		<!-- Input file containing the vehicles used by the departures in the transit schedule. -->
		<param name="vehiclesFile" value="null" />
	</module>
	<module name="transitRouter" >
		<!-- additional time the router allocates when a line switch happens. Can be interpreted as a 'safety' time that agents need to safely transfer from one line to another -->
		<param name="additionalTransferTime" value="0.0" />
		<!-- Factor with which direct walk generalized cost is multiplied before it is compared to the pt generalized cost.  Set to a very high value to reduce direct walk results. -->
		<param name="directWalkFactor" value="1.0" />
		<!-- step size to increase searchRadius if no stops are found -->
		<param name="extensionRadius" value="200.0" />
		<!-- maximum beeline distance between stops that agents could transfer to by walking -->
		<param name="maxBeelineWalkConnectionDistance" value="100.0" />
		<!-- the radius in which stop locations are searched, given a start or target coordinate -->
		<param name="searchRadius" value="1000.0" />
	</module>
	<module name="travelTimeCalculator" >
		<!-- (only for backwards compatibility; only used if separateModes==false && + filterModes==true)  Transport modes that will be respected by the travel time collector. 'car' is default which includes also buses from the pt simulation module. -->
		<param name="analyzedModes" value="car" />
		<param name="calculateLinkToLinkTravelTimes" value="false" />
		<param name="calculateLinkTravelTimes" value="true" />
		<!-- (only for backwards compatiblity; only used if separateModes==false)  Only modes included in analyzedModes are included. -->
		<param name="filterModes" value="false" />
		<!-- The lenght (in sec) of the time period that is splited into time bins; an additional time bin is created to aggregate all travel times collected after maxTime -->
		<param name="maxTime" value="108000" />
		<!-- (only for backwards compatibility) If false, link travel times are measured and aggregated over all vehicles using the link. -->
		<param name="separateModes" value="true" />
		<!-- How to deal with congested time bins that have no link entry events. `optimistic' assumes free speed (too optimistic); 'experimental_LastMile' is experimental and probably too pessimistic. -->
		<param name="travelTimeAggregator" value="optimistic" />
		<!-- The size of the time bin (in sec) into which the link travel times are aggregated for the router -->
		<param name="travelTimeBinSize" value="900.0" />
		<!-- How to deal with link entry times at different positions during the time bin. Currently supported: average, linearinterpolation -->
		<param name="travelTimeGetter" value="average" />
	</module>
	<module name="vehicles" >
		<param name="vehiclesFile" value="null" />
	</module>
	<module name="vspExperimental" >
		<!-- (do not use except of you have to) There was a problem with pt interaction scoring.  Some people solved it by overwriting the parameters of the pt interaction activity type.  Doing this now throws an Exception.  If you still insist on doing this, set the following to true. -->
		<param name="isAbleToOverwritePtInteractionParams" value="false" />
		<param name="isGeneratingBoardingDeniedEvent" value="false" />
		<!-- if an approximation of the opportunity cost of time is included into the radius calculation for location choice.`true' will be faster, but it is an approximation.  Default is `true'; `false' is available for backwards compatibility. -->
		<param name="isUsingOpportunityCostOfTimeForLocationChoice" value="true" />
		<param name="logitScaleParamForPlansRemoval" value="1.0" />
		<!-- Options: | ignore | info | warn | abort | .  When violating VSP defaults, this results in nothing, logfile infos, logfile warnings, or aborts.  Members of VSP should use `abort' or talk to kai. -->
		<param name="vspDefaultsCheckingLevel" value="ignore" />
		<!-- if true then writes output_events in output directory.  default is `false'. Will only work when lastIteration is multiple of events writing interval -->
		<param name="writingOutputEvents" value="true" />
	</module>

</config>

2024-02-08T11:45:58,836  INFO ControlerUtils:84 Complete config dump done.
2024-02-08T11:45:58,836  INFO ControlerUtils:85 Checking consistency of config...
2024-02-08T11:45:58,836  INFO ScoringConfigGroup$ScoringParameterSet:1555 NO OPENING OR CLOSING TIMES DEFINED!

There is no activity type that has an opening *and* closing time (or opening time and late penalty) defined.
This usually means that the activity chains can be shifted by an arbitrary
number of hours without having an effect on the score of the plans, and thus
resulting in wrong results / traffic patterns.
If you are using MATSim without time adaptation, you can ignore this warning.


2024-02-08T11:45:58,836  INFO VspConfigConsistencyCheckerImpl:68 NOT running vsp config consistency check because vsp defaults checking level is set to IGNORE
2024-02-08T11:45:58,845  INFO ControlerUtils:87 Checking consistency of config done.
2024-02-08T11:45:58,846  INFO PrepareForSimImpl:128 Network seems to be multimodal. Create car-only network which is handed over to PersonPrepareForSim.
2024-02-08T11:45:58,848  INFO NetworkImpl:165  node # 1
2024-02-08T11:45:58,848  INFO NetworkImpl:165  node # 4
2024-02-08T11:45:58,848  INFO NetworkImpl:165  node # 16
2024-02-08T11:45:58,848  INFO NetworkImpl:165  node # 64
2024-02-08T11:45:58,849  INFO NetworkImpl:165  node # 256
2024-02-08T11:45:58,850  INFO NetworkImpl:165  node # 1024
2024-02-08T11:45:58,852  INFO NetworkImpl:165  node # 4096
2024-02-08T11:45:58,857  INFO NetworkImpl:165  node # 16384
2024-02-08T11:45:58,876  INFO NetworkImpl:165  node # 65536
2024-02-08T11:45:58,883  INFO NetworkImpl:161  link # 1
2024-02-08T11:45:58,883  INFO NetworkImpl:161  link # 4
2024-02-08T11:45:58,883  INFO NetworkImpl:161  link # 16
2024-02-08T11:45:58,883  INFO NetworkImpl:161  link # 64
2024-02-08T11:45:58,884  INFO NetworkImpl:161  link # 256
2024-02-08T11:45:58,888  INFO NetworkImpl:161  link # 1024
2024-02-08T11:45:58,896  INFO NetworkImpl:161  link # 4096
2024-02-08T11:45:58,919  INFO NetworkImpl:161  link # 16384
2024-02-08T11:45:58,988  INFO NetworkImpl:161  link # 65536
2024-02-08T11:45:59,294  INFO SpeedyALTData:51 find dead ends...
2024-02-08T11:45:59,298  INFO SpeedyALTData:132 calculate landmarks...
2024-02-08T11:46:00,070  INFO SpeedyALTData:173 calculate min travelcost...
2024-02-08T11:46:00,079  INFO NetworkImpl:165  node # 1
2024-02-08T11:46:00,079  INFO NetworkImpl:165  node # 4
2024-02-08T11:46:00,079  INFO NetworkImpl:165  node # 16
2024-02-08T11:46:00,079  INFO NetworkImpl:165  node # 64
2024-02-08T11:46:00,079  INFO NetworkImpl:165  node # 256
2024-02-08T11:46:00,079  INFO NetworkImpl:165  node # 1024
2024-02-08T11:46:00,080  INFO NetworkImpl:165  node # 4096
2024-02-08T11:46:00,081  INFO NetworkImpl:165  node # 16384
2024-02-08T11:46:00,088  INFO NetworkImpl:165  node # 65536
2024-02-08T11:46:00,094  INFO NetworkImpl:161  link # 1
2024-02-08T11:46:00,095  INFO NetworkImpl:161  link # 4
2024-02-08T11:46:00,095  INFO NetworkImpl:161  link # 16
2024-02-08T11:46:00,095  INFO NetworkImpl:161  link # 64
2024-02-08T11:46:00,095  INFO NetworkImpl:161  link # 256
2024-02-08T11:46:00,097  INFO NetworkImpl:161  link # 1024
2024-02-08T11:46:00,100  INFO NetworkImpl:161  link # 4096
2024-02-08T11:46:00,118  INFO NetworkImpl:161  link # 16384
2024-02-08T11:46:00,200  INFO NetworkImpl:161  link # 65536
2024-02-08T11:46:00,445  WARN RandomizingTimeDistanceTravelDisutilityFactory:113 There will be no routing randomness. The randomization of the travel disutility requires the monetary distance rate to be different than zero. Continuing anyway.
2024-02-08T11:46:00,445  WARN RandomizingTimeDistanceTravelDisutilityFactory:118 There will be no routing randomness. The randomization of the travel disutility requires the travel time cost rate to be different than zero. Continuing anyway.
2024-02-08T11:46:00,446  INFO RandomizingTimeDistanceTravelDisutilityFactory:86  sigma: 3.0; resulting normalization: 0.011108996538242306
2024-02-08T11:46:00,483  INFO SpeedyALTData:51 find dead ends...
2024-02-08T11:46:00,488  INFO SpeedyALTData:132 calculate landmarks...
2024-02-08T11:46:01,054  INFO SpeedyALTData:173 calculate min travelcost...
2024-02-08T11:46:01,097  INFO SpeedyALTData:51 find dead ends...
2024-02-08T11:46:01,103  INFO SpeedyALTData:132 calculate landmarks...
2024-02-08T11:46:01,528  INFO SpeedyALTData:173 calculate min travelcost...
2024-02-08T11:46:01,560  INFO RandomizingTimeDistanceTravelDisutilityFactory:86  sigma: 3.0; resulting normalization: 0.011108996538242306
2024-02-08T11:46:01,575  INFO Counter:75 [PersonPrepareForSim] handled person # 0
2024-02-08T11:46:01,606  INFO AbstractController:136 ###################################################
2024-02-08T11:46:01,606  INFO AbstractController:137 ### ITERATION 0 BEGINS
2024-02-08T11:46:01,607  INFO ControlerListenerManagerImpl:156 calling notifyIterationStarts on org.matsim.analysis.LegHistogramListener with priority 0.0
2024-02-08T11:46:01,607  INFO ControlerListenerManagerImpl:156 calling notifyIterationStarts on org.matsim.analysis.LinkStatsControlerListener with priority 0.0
2024-02-08T11:46:01,607  INFO ControlerListenerManagerImpl:156 calling notifyIterationStarts on org.matsim.core.replanning.ReplanningContextImpl with priority 0.0
2024-02-08T11:46:01,607  INFO ControlerListenerManagerImpl:156 calling notifyIterationStarts on org.matsim.core.scoring.ScoringFunctionsForPopulation$$Lambda$304/0x00000008014841f0 with priority 0.0
2024-02-08T11:46:01,607  INFO ControlerListenerManagerImpl:156 calling notifyIterationStarts on org.matsim.core.scoring.ExperiencedPlansServiceImpl$1 with priority 0.0
2024-02-08T11:46:01,607  INFO ControlerListenerManagerImpl:159 [it.0] all ControlerIterationStartsListeners called.
2024-02-08T11:46:01,608  INFO ControlerListenerManagerImpl:242 calling notifyBeforeMobsim on org.matsim.core.controler.corelisteners.EventsHandlingImpl with priority 0.0
2024-02-08T11:46:01,608  INFO EventsManagerImpl:168 resetting Event-Handlers
2024-02-08T11:46:01,608  INFO EventsManagerImpl:175   org.matsim.core.trafficmonitoring.TravelTimeCalculator
2024-02-08T11:46:01,609  INFO EventsManagerImpl:175   org.matsim.analysis.VolumesAnalyzer
2024-02-08T11:46:01,609  INFO EventsManagerImpl:175   org.matsim.core.scoring.ScoringFunctionsForPopulation
2024-02-08T11:46:01,609  INFO EventsManagerImpl:175   org.matsim.freight.carriers.controler.CarrierAgentTracker
2024-02-08T11:46:01,609  INFO EventsManagerImpl:175   org.matsim.analysis.LegHistogram
2024-02-08T11:46:01,609  INFO EventsManagerImpl:175   org.matsim.analysis.CalcLegTimes
2024-02-08T11:46:01,612  INFO EventsManagerImpl:138 adding Event-Handler: org.matsim.core.events.algorithms.EventWriterXML
2024-02-08T11:46:01,612  INFO EventsManagerImpl:144   org.matsim.core.events.algorithms.EventWriter
2024-02-08T11:46:01,612  INFO EventsManagerImpl:144   org.matsim.core.events.handler.BasicEventHandler
2024-02-08T11:46:01,612  INFO EventsManagerImpl:205     > org.matsim.api.core.v01.events.Event
2024-02-08T11:46:01,612  INFO EventsManagerImpl:154 
2024-02-08T11:46:01,612  INFO EventsManagerImpl:138 adding Event-Handler: org.matsim.core.events.algorithms.EventWriterXML
2024-02-08T11:46:01,612  INFO EventsManagerImpl:144   org.matsim.core.events.algorithms.EventWriter
2024-02-08T11:46:01,612  INFO EventsManagerImpl:144   org.matsim.core.events.handler.BasicEventHandler
2024-02-08T11:46:01,612  INFO EventsManagerImpl:205     > org.matsim.api.core.v01.events.Event
2024-02-08T11:46:01,612  INFO EventsManagerImpl:154 
2024-02-08T11:46:01,612  INFO ControlerListenerManagerImpl:242 calling notifyBeforeMobsim on org.matsim.core.controler.corelisteners.PlansDumpingImpl with priority 0.0
2024-02-08T11:46:01,612  INFO PlansDumpingImpl:77 dumping plans...
2024-02-08T11:46:01,618  INFO Counter:75 [ParallelPopulationWriterV6] dumped person # 0
2024-02-08T11:46:01,618  INFO PopulationWriter:150 Population written to: ./output/freightDashboard/ITERS/it.0/0.plans.xml.gz
2024-02-08T11:46:01,619  INFO Counter:75 [PopulationWriter] dumped person # 0
2024-02-08T11:46:01,619  INFO PlansDumpingImpl:94 finished plans dump.
2024-02-08T11:46:01,619  INFO ControlerListenerManagerImpl:248 calling notifyBeforeMobsim on org.matsim.core.population.VspPlansCleaner with priority 0.0
2024-02-08T11:46:01,619  INFO ControlerListenerManagerImpl:251 [it.0] all ControlerBeforeMobsimListeners called.
2024-02-08T11:46:01,620  INFO PrepareForMobsimImpl:86 Network seems to be multimodal. Create car-only network which is handed over to PersonPrepareForSim.
2024-02-08T11:46:01,620  INFO NetworkImpl:165  node # 1
2024-02-08T11:46:01,620  INFO NetworkImpl:165  node # 4
2024-02-08T11:46:01,620  INFO NetworkImpl:165  node # 16
2024-02-08T11:46:01,620  INFO NetworkImpl:165  node # 64
2024-02-08T11:46:01,620  INFO NetworkImpl:165  node # 256
2024-02-08T11:46:01,620  INFO NetworkImpl:165  node # 1024
2024-02-08T11:46:01,621  INFO NetworkImpl:165  node # 4096
2024-02-08T11:46:01,622  INFO NetworkImpl:165  node # 16384
2024-02-08T11:46:01,625  INFO NetworkImpl:165  node # 65536
2024-02-08T11:46:01,648  INFO NetworkImpl:161  link # 1
2024-02-08T11:46:01,648  INFO NetworkImpl:161  link # 4
2024-02-08T11:46:01,648  INFO NetworkImpl:161  link # 16
2024-02-08T11:46:01,648  INFO NetworkImpl:161  link # 64
2024-02-08T11:46:01,648  INFO NetworkImpl:161  link # 256
2024-02-08T11:46:01,649  INFO NetworkImpl:161  link # 1024
2024-02-08T11:46:01,651  INFO NetworkImpl:161  link # 4096
2024-02-08T11:46:01,661  INFO NetworkImpl:161  link # 16384
2024-02-08T11:46:01,709  INFO NetworkImpl:161  link # 65536
2024-02-08T11:46:01,901  INFO RandomizingTimeDistanceTravelDisutilityFactory:86  sigma: 3.0; resulting normalization: 0.011108996538242306
2024-02-08T11:46:01,907  INFO RandomizingTimeDistanceTravelDisutilityFactory:86  sigma: 3.0; resulting normalization: 0.011108996538242306
2024-02-08T11:46:01,915  INFO Counter:75 [PersonPrepareForSim] handled person # 0
2024-02-08T11:46:01,994  INFO MobsimListenerManager:50 calling addQueueSimulationListener
2024-02-08T11:46:01,994  INFO MobsimListenerManager:54   assigned class org.matsim.core.mobsim.framework.listeners.MobsimListener to interface org.matsim.core.mobsim.framework.listeners.MobsimBeforeCleanupListener
2024-02-08T11:46:01,994  INFO MobsimListenerManager:54   assigned class org.matsim.core.mobsim.framework.listeners.MobsimListener to interface org.matsim.vis.snapshotwriters.SnapshotWriterManager
2024-02-08T11:46:01,995  INFO MobsimListenerManager:54   assigned class org.matsim.core.mobsim.framework.listeners.MobsimListener to interface org.matsim.core.mobsim.framework.listeners.MobsimListener
2024-02-08T11:46:01,995  INFO MobsimListenerManager:54   assigned class org.matsim.core.mobsim.framework.listeners.MobsimListener to interface org.matsim.core.mobsim.framework.listeners.MobsimAfterSimStepListener
2024-02-08T11:46:01,995  INFO MobsimListenerManager:54   assigned class org.matsim.core.mobsim.framework.listeners.MobsimListener to interface org.matsim.core.mobsim.framework.listeners.MobsimInitializedListener
2024-02-08T11:46:02,001  INFO QSimProvider:131 Added MobsimEngine class org.matsim.core.mobsim.qsim.ActivityEngineDefaultImpl
2024-02-08T11:46:02,001  INFO QSimProvider:137 Added Activityhandler class org.matsim.core.mobsim.qsim.ActivityEngineDefaultImpl
2024-02-08T11:46:02,095  WARN QueueWithBuffer:500 Link 100061 too small: enlarge storage capacity from: 2.364373543642173 Vehicles to: 2.5085918713079165 Vehicles.  This is not fatal, but modifies the traffic flow dynamics.
2024-02-08T11:46:02,099  WARN QueueWithBuffer:500 Link 100062 too small: enlarge storage capacity from: 2.364373543642173 Vehicles to: 2.5085918713079165 Vehicles.  This is not fatal, but modifies the traffic flow dynamics.
2024-02-08T11:46:02,099  WARN QueueWithBuffer:500 Link 100159 too small: enlarge storage capacity from: 2.3279058035016513 Vehicles to: 2.4810996196243544 Vehicles.  This is not fatal, but modifies the traffic flow dynamics.
2024-02-08T11:46:02,099  WARN QueueWithBuffer:500 Link 100160 too small: enlarge storage capacity from: 2.3279058035016513 Vehicles to: 2.4810996196243544 Vehicles.  This is not fatal, but modifies the traffic flow dynamics.
2024-02-08T11:46:02,100  WARN QueueWithBuffer:500 Link 100279 too small: enlarge storage capacity from: 0.8044626111127964 Vehicles to: 1.057778804356083 Vehicles.  This is not fatal, but modifies the traffic flow dynamics.
2024-02-08T11:46:02,100  WARN QueueWithBuffer:500 Link 100280 too small: enlarge storage capacity from: 0.8044626111127964 Vehicles to: 1.057778804356083 Vehicles.  This is not fatal, but modifies the traffic flow dynamics.
2024-02-08T11:46:02,103  WARN QueueWithBuffer:500 Link 100766 too small: enlarge storage capacity from: 1.5677384686274727 Vehicles to: 1.8453328312273465 Vehicles.  This is not fatal, but modifies the traffic flow dynamics.
2024-02-08T11:46:02,104  WARN QueueWithBuffer:500 Link 100767 too small: enlarge storage capacity from: 1.5677384686274727 Vehicles to: 1.8453328312273465 Vehicles.  This is not fatal, but modifies the traffic flow dynamics.
2024-02-08T11:46:02,106  WARN QueueWithBuffer:500 Link 100840 too small: enlarge storage capacity from: 1.367826997551048 Vehicles to: 1.6554708862490988 Vehicles.  This is not fatal, but modifies the traffic flow dynamics.
2024-02-08T11:46:02,106  WARN QueueWithBuffer:500 Link 100841 too small: enlarge storage capacity from: 1.367826997551048 Vehicles to: 1.6554708862490988 Vehicles.  This is not fatal, but modifies the traffic flow dynamics.
2024-02-08T11:46:02,107  WARN QueueWithBuffer:500 Link 100962 too small: enlarge storage capacity from: 18.588510955649852 Vehicles to: 33.45931972016973 Vehicles.  This is not fatal, but modifies the traffic flow dynamics.
2024-02-08T11:46:02,107  WARN QueueWithBuffer:503 Additional warnings of this type are suppressed.
2024-02-08T11:46:02,815  INFO QSimProvider:143 Added DepartureHandler class org.matsim.core.mobsim.qsim.qnetsimengine.VehicularDepartureHandler
2024-02-08T11:46:02,815  INFO QSimProvider:131 Added MobsimEngine class org.matsim.core.mobsim.qsim.qnetsimengine.QNetsimEngineWithThreadpool
2024-02-08T11:46:02,815  INFO QSimProvider:131 Added MobsimEngine class org.matsim.core.mobsim.qsim.DefaultTeleportationEngine
2024-02-08T11:46:02,816  INFO QSimProvider:143 Added DepartureHandler class org.matsim.core.mobsim.qsim.DefaultTeleportationEngine
2024-02-08T11:46:02,816  INFO QSimProvider:149 Added AgentSource class org.matsim.core.mobsim.qsim.agents.PopulationAgentSource
2024-02-08T11:46:02,816  INFO MobsimListenerManager:50 calling addQueueSimulationListener
2024-02-08T11:46:02,816  INFO MobsimListenerManager:54   assigned class org.matsim.core.mobsim.framework.listeners.MobsimListener to interface org.matsim.core.mobsim.framework.listeners.MobsimBeforeSimStepListener
2024-02-08T11:46:02,816  INFO MobsimListenerManager:54   assigned class org.matsim.core.mobsim.framework.listeners.MobsimListener to interface org.matsim.core.mobsim.framework.listeners.MobsimListener
2024-02-08T11:46:02,816  INFO MobsimListenerManager:54   assigned class org.matsim.core.mobsim.framework.listeners.MobsimListener to interface org.matsim.core.mobsim.qsim.messagequeueengine.MessageQueueEngine
2024-02-08T11:46:02,816  INFO QSimProvider:155 Added MobsimListener class org.matsim.core.mobsim.qsim.messagequeueengine.MessageQueueEngine
2024-02-08T11:46:02,816  INFO QSimProvider:149 Added AgentSource class org.matsim.freight.carriers.controler.FreightAgentSource
2024-02-08T11:46:02,816  INFO MobsimListenerManager:50 calling addQueueSimulationListener
2024-02-08T11:46:02,816  INFO MobsimListenerManager:54   assigned class org.matsim.core.mobsim.framework.listeners.MobsimListener to interface org.matsim.core.mobsim.framework.listeners.MobsimBeforeSimStepListener
2024-02-08T11:46:02,816  INFO MobsimListenerManager:54   assigned class org.matsim.core.mobsim.framework.listeners.MobsimListener to interface org.matsim.freight.carriers.controler.WithinDayActivityReScheduling
2024-02-08T11:46:02,816  INFO MobsimListenerManager:54   assigned class org.matsim.core.mobsim.framework.listeners.MobsimListener to interface org.matsim.core.mobsim.framework.listeners.MobsimListener
2024-02-08T11:46:02,817  INFO QSimProvider:155 Added MobsimListener class org.matsim.freight.carriers.controler.WithinDayActivityReScheduling
2024-02-08T11:46:02,827  WARN FreightAgentSource:86 inserting vehicleId=freight_edeka_SUPERMARKT_TROCKEN_veh_heavy26t_59933_1 into mobsim.
2024-02-08T11:46:02,827  INFO VehicleUtils:372 adding scenario element for allvehicles container
2024-02-08T11:46:02,828  INFO Counter:70 [VehiclesImpl] added vehicle # 1
2024-02-08T11:46:02,828  INFO PopulationUtils:1244 adding scenario element for allpersons container
2024-02-08T11:46:02,829  INFO PopulationImpl:107  person # 1
2024-02-08T11:46:02,829  WARN FreightAgentSource:86 inserting vehicleId=freight_edeka_SUPERMARKT_TROCKEN_veh_heavy26t_59933_2 into mobsim.
2024-02-08T11:46:02,829  INFO Counter:70 [VehiclesImpl] added vehicle # 2
2024-02-08T11:46:02,829  WARN FreightAgentSource:86 inserting vehicleId=freight_edeka_SUPERMARKT_TROCKEN_veh_heavy26t_59933_3 into mobsim.
2024-02-08T11:46:02,829  WARN FreightAgentSource:86 inserting vehicleId=freight_edeka_SUPERMARKT_TROCKEN_veh_heavy26t_59933_4 into mobsim.
2024-02-08T11:46:02,829  INFO Counter:70 [VehiclesImpl] added vehicle # 4
2024-02-08T11:46:02,829  INFO PopulationImpl:107  person # 4
2024-02-08T11:46:02,829  WARN FreightAgentSource:86 inserting vehicleId=freight_edeka_SUPERMARKT_TROCKEN_veh_heavy26t_59933_5 into mobsim.
2024-02-08T11:46:02,830  WARN FreightAgentSource:86 inserting vehicleId=freight_edeka_SUPERMARKT_TROCKEN_veh_heavy26t_59933_6 into mobsim.
2024-02-08T11:46:02,830  WARN FreightAgentSource:86 inserting vehicleId=freight_edeka_SUPERMARKT_TROCKEN_veh_heavy26t_59933_7 into mobsim.
2024-02-08T11:46:02,830  WARN FreightAgentSource:86 inserting vehicleId=freight_edeka_SUPERMARKT_TROCKEN_veh_heavy26t_59933_8 into mobsim.
2024-02-08T11:46:02,830  INFO Counter:70 [VehiclesImpl] added vehicle # 8
2024-02-08T11:46:02,830  WARN FreightAgentSource:86 inserting vehicleId=freight_edeka_SUPERMARKT_TROCKEN_veh_heavy26t_59933_9 into mobsim.
2024-02-08T11:46:02,830  WARN FreightAgentSource:86 inserting vehicleId=freight_edeka_SUPERMARKT_TROCKEN_veh_heavy26t_59933_10 into mobsim.
2024-02-08T11:46:02,830  WARN FreightAgentSource:86 inserting vehicleId=freight_edeka_SUPERMARKT_TROCKEN_veh_heavy26t_59933_11 into mobsim.
2024-02-08T11:46:02,830  WARN FreightAgentSource:86 inserting vehicleId=freight_edeka_SUPERMARKT_TROCKEN_veh_heavy26t_59933_12 into mobsim.
2024-02-08T11:46:02,830  WARN FreightAgentSource:86 inserting vehicleId=freight_edeka_SUPERMARKT_TROCKEN_veh_heavy26t_59933_13 into mobsim.
2024-02-08T11:46:02,830  WARN FreightAgentSource:86 inserting vehicleId=freight_edeka_SUPERMARKT_TROCKEN_veh_heavy26t_59933_14 into mobsim.
2024-02-08T11:46:02,830  WARN FreightAgentSource:86 inserting vehicleId=freight_edeka_SUPERMARKT_TROCKEN_veh_heavy26t_59933_15 into mobsim.
2024-02-08T11:46:02,831  WARN FreightAgentSource:86 inserting vehicleId=freight_edeka_SUPERMARKT_TROCKEN_veh_heavy26t_59933_16 into mobsim.
2024-02-08T11:46:02,831  INFO Counter:70 [VehiclesImpl] added vehicle # 16
2024-02-08T11:46:02,831  INFO PopulationImpl:107  person # 16
2024-02-08T11:46:02,831  WARN FreightAgentSource:86 inserting vehicleId=freight_edeka_SUPERMARKT_TROCKEN_veh_heavy26t_59933_17 into mobsim.
2024-02-08T11:46:02,831  WARN FreightAgentSource:86 inserting vehicleId=freight_edeka_SUPERMARKT_TROCKEN_veh_heavy26t_59933_18 into mobsim.
2024-02-08T11:46:02,831  WARN FreightAgentSource:86 inserting vehicleId=freight_edeka_SUPERMARKT_TROCKEN_veh_medium18t_59933_19 into mobsim.
2024-02-08T11:46:02,832  WARN FreightAgentSource:86 inserting vehicleId=freight_edeka_SUPERMARKT_FRISCHE_veh_heavy26t_95392_1 into mobsim.
2024-02-08T11:46:02,833  WARN FreightAgentSource:86 inserting vehicleId=freight_edeka_SUPERMARKT_FRISCHE_veh_heavy26t_95392_2 into mobsim.
2024-02-08T11:46:02,833  WARN FreightAgentSource:86 inserting vehicleId=freight_edeka_SUPERMARKT_FRISCHE_veh_heavy26t_95392_3 into mobsim.
2024-02-08T11:46:02,833  WARN FreightAgentSource:86 inserting vehicleId=freight_edeka_SUPERMARKT_FRISCHE_veh_heavy26t_95392_4 into mobsim.
2024-02-08T11:46:02,833  WARN FreightAgentSource:86 inserting vehicleId=freight_edeka_SUPERMARKT_FRISCHE_veh_heavy26t_95392_5 into mobsim.
2024-02-08T11:46:02,834  WARN FreightAgentSource:86 inserting vehicleId=freight_edeka_SUPERMARKT_FRISCHE_veh_heavy26t_95392_6 into mobsim.
2024-02-08T11:46:02,834  WARN FreightAgentSource:86 inserting vehicleId=freight_edeka_SUPERMARKT_FRISCHE_veh_heavy26t_95392_7 into mobsim.
2024-02-08T11:46:02,834  WARN FreightAgentSource:86 inserting vehicleId=freight_edeka_SUPERMARKT_FRISCHE_veh_heavy26t_95392_8 into mobsim.
2024-02-08T11:46:02,834  WARN FreightAgentSource:86 inserting vehicleId=freight_edeka_SUPERMARKT_FRISCHE_veh_heavy26t_95392_9 into mobsim.
2024-02-08T11:46:02,834  WARN FreightAgentSource:86 inserting vehicleId=freight_edeka_SUPERMARKT_FRISCHE_veh_heavy26t_95392_10 into mobsim.
2024-02-08T11:46:02,834  WARN FreightAgentSource:86 inserting vehicleId=freight_edeka_SUPERMARKT_FRISCHE_veh_heavy26t_95392_11 into mobsim.
2024-02-08T11:46:02,834  WARN FreightAgentSource:86 inserting vehicleId=freight_edeka_SUPERMARKT_FRISCHE_veh_heavy26t_95392_12 into mobsim.
2024-02-08T11:46:02,835  WARN FreightAgentSource:86 inserting vehicleId=freight_edeka_SUPERMARKT_FRISCHE_veh_heavy26t_95392_13 into mobsim.
2024-02-08T11:46:02,835  INFO Counter:70 [VehiclesImpl] added vehicle # 32
2024-02-08T11:46:02,835  WARN FreightAgentSource:86 inserting vehicleId=freight_edeka_SUPERMARKT_FRISCHE_veh_heavy26t_95392_14 into mobsim.
2024-02-08T11:46:02,835  WARN FreightAgentSource:86 inserting vehicleId=freight_edeka_SUPERMARKT_FRISCHE_veh_heavy26t_95392_15 into mobsim.
2024-02-08T11:46:02,835  WARN FreightAgentSource:86 inserting vehicleId=freight_edeka_SUPERMARKT_FRISCHE_veh_heavy26t_95392_16 into mobsim.
2024-02-08T11:46:02,835  WARN FreightAgentSource:86 inserting vehicleId=freight_edeka_SUPERMARKT_FRISCHE_veh_heavy26t_95392_17 into mobsim.
2024-02-08T11:46:02,835  WARN FreightAgentSource:86 inserting vehicleId=freight_edeka_SUPERMARKT_FRISCHE_veh_heavy26t_95392_18 into mobsim.
2024-02-08T11:46:02,836  WARN FreightAgentSource:86 inserting vehicleId=freight_edeka_SUPERMARKT_FRISCHE_veh_heavy26t_95392_19 into mobsim.
2024-02-08T11:46:02,836  WARN FreightAgentSource:86 inserting vehicleId=freight_edeka_SUPERMARKT_FRISCHE_veh_heavy26t_95392_20 into mobsim.
2024-02-08T11:46:02,836  WARN FreightAgentSource:86 inserting vehicleId=freight_edeka_SUPERMARKT_FRISCHE_veh_heavy26t_95392_21 into mobsim.
2024-02-08T11:46:02,836  WARN FreightAgentSource:86 inserting vehicleId=freight_edeka_SUPERMARKT_FRISCHE_veh_heavy26t_95392_22 into mobsim.
2024-02-08T11:46:02,836  WARN FreightAgentSource:86 inserting vehicleId=freight_edeka_SUPERMARKT_FRISCHE_veh_heavy26t_95392_23 into mobsim.
2024-02-08T11:46:02,837  WARN FreightAgentSource:86 inserting vehicleId=freight_edeka_SUPERMARKT_TIEFKUEHL_veh_heavy26t_frozen_95392_1 into mobsim.
2024-02-08T11:46:02,837  WARN FreightAgentSource:86 inserting vehicleId=freight_edeka_SUPERMARKT_TIEFKUEHL_veh_heavy26t_frozen_95392_2 into mobsim.
2024-02-08T11:46:02,837  WARN FreightAgentSource:86 inserting vehicleId=freight_lidl_DISCOUNTER_FRISCHE_veh_heavy26t_159381_1 into mobsim.
2024-02-08T11:46:02,837  WARN FreightAgentSource:86 inserting vehicleId=freight_lidl_DISCOUNTER_FRISCHE_veh_heavy26t_35493_2 into mobsim.
2024-02-08T11:46:02,837  WARN FreightAgentSource:86 inserting vehicleId=freight_lidl_DISCOUNTER_FRISCHE_veh_heavy26t_159381_3 into mobsim.
2024-02-08T11:46:02,838  WARN FreightAgentSource:86 inserting vehicleId=freight_lidl_DISCOUNTER_FRISCHE_veh_heavy26t_159381_4 into mobsim.
2024-02-08T11:46:02,838  WARN FreightAgentSource:86 inserting vehicleId=freight_lidl_DISCOUNTER_FRISCHE_veh_heavy26t_159381_5 into mobsim.
2024-02-08T11:46:02,838  WARN FreightAgentSource:86 inserting vehicleId=freight_lidl_DISCOUNTER_FRISCHE_veh_heavy26t_159381_6 into mobsim.
2024-02-08T11:46:02,838  WARN FreightAgentSource:86 inserting vehicleId=freight_lidl_DISCOUNTER_FRISCHE_veh_heavy26t_159381_7 into mobsim.
2024-02-08T11:46:02,838  WARN FreightAgentSource:86 inserting vehicleId=freight_lidl_DISCOUNTER_FRISCHE_veh_heavy26t_159381_8 into mobsim.
2024-02-08T11:46:02,838  WARN FreightAgentSource:86 inserting vehicleId=freight_lidl_DISCOUNTER_FRISCHE_veh_heavy26t_159381_9 into mobsim.
2024-02-08T11:46:02,838  WARN FreightAgentSource:86 inserting vehicleId=freight_lidl_DISCOUNTER_FRISCHE_veh_heavy26t_159381_10 into mobsim.
2024-02-08T11:46:02,838  WARN FreightAgentSource:86 inserting vehicleId=freight_lidl_DISCOUNTER_FRISCHE_veh_heavy26t_159381_11 into mobsim.
2024-02-08T11:46:02,838  WARN FreightAgentSource:86 inserting vehicleId=freight_lidl_DISCOUNTER_FRISCHE_veh_heavy26t_159381_12 into mobsim.
2024-02-08T11:46:02,838  WARN FreightAgentSource:86 inserting vehicleId=freight_lidl_DISCOUNTER_FRISCHE_veh_heavy26t_159381_13 into mobsim.
2024-02-08T11:46:02,838  WARN FreightAgentSource:86 inserting vehicleId=freight_lidl_DISCOUNTER_FRISCHE_veh_heavy26t_159381_14 into mobsim.
2024-02-08T11:46:02,838  WARN FreightAgentSource:86 inserting vehicleId=freight_lidl_DISCOUNTER_FRISCHE_veh_heavy26t_159381_15 into mobsim.
2024-02-08T11:46:02,838  WARN FreightAgentSource:86 inserting vehicleId=freight_lidl_DISCOUNTER_FRISCHE_veh_heavy26t_159381_16 into mobsim.
2024-02-08T11:46:02,838  WARN FreightAgentSource:86 inserting vehicleId=freight_lidl_DISCOUNTER_FRISCHE_veh_heavy26t_159381_17 into mobsim.
2024-02-08T11:46:02,838  WARN FreightAgentSource:86 inserting vehicleId=freight_lidl_DISCOUNTER_FRISCHE_veh_heavy26t_159381_18 into mobsim.
2024-02-08T11:46:02,839  WARN FreightAgentSource:86 inserting vehicleId=freight_lidl_DISCOUNTER_FRISCHE_veh_heavy26t_159381_19 into mobsim.
2024-02-08T11:46:02,839  WARN FreightAgentSource:86 inserting vehicleId=freight_lidl_DISCOUNTER_FRISCHE_veh_heavy26t_159381_20 into mobsim.
2024-02-08T11:46:02,839  INFO Counter:70 [VehiclesImpl] added vehicle # 64
2024-02-08T11:46:02,839  INFO PopulationImpl:107  person # 64
2024-02-08T11:46:02,839  WARN FreightAgentSource:86 inserting vehicleId=freight_lidl_DISCOUNTER_FRISCHE_veh_heavy26t_159381_21 into mobsim.
2024-02-08T11:46:02,839  WARN FreightAgentSource:86 inserting vehicleId=freight_lidl_DISCOUNTER_FRISCHE_veh_heavy26t_159381_22 into mobsim.
2024-02-08T11:46:02,839  WARN FreightAgentSource:86 inserting vehicleId=freight_lidl_DISCOUNTER_FRISCHE_veh_heavy26t_159381_23 into mobsim.
2024-02-08T11:46:02,839  WARN FreightAgentSource:86 inserting vehicleId=freight_lidl_DISCOUNTER_FRISCHE_veh_heavy26t_159381_24 into mobsim.
2024-02-08T11:46:02,839  WARN FreightAgentSource:86 inserting vehicleId=freight_lidl_DISCOUNTER_FRISCHE_veh_heavy26t_159381_25 into mobsim.
2024-02-08T11:46:02,839  WARN FreightAgentSource:86 inserting vehicleId=freight_lidl_DISCOUNTER_FRISCHE_veh_heavy26t_159381_26 into mobsim.
2024-02-08T11:46:02,839  WARN FreightAgentSource:86 inserting vehicleId=freight_lidl_DISCOUNTER_FRISCHE_veh_heavy26t_159381_27 into mobsim.
2024-02-08T11:46:02,839  WARN FreightAgentSource:86 inserting vehicleId=freight_lidl_DISCOUNTER_FRISCHE_veh_heavy26t_159381_28 into mobsim.
2024-02-08T11:46:02,840  WARN FreightAgentSource:86 inserting vehicleId=freight_lidl_DISCOUNTER_FRISCHE_veh_heavy26t_159381_29 into mobsim.
2024-02-08T11:46:02,840  WARN FreightAgentSource:86 inserting vehicleId=freight_lidl_DISCOUNTER_TROCKEN_veh_medium18t_159381_1 into mobsim.
2024-02-08T11:46:02,840  WARN FreightAgentSource:86 inserting vehicleId=freight_lidl_DISCOUNTER_TROCKEN_veh_medium18t_35493_2 into mobsim.
2024-02-08T11:46:02,840  WARN FreightAgentSource:86 inserting vehicleId=freight_lidl_DISCOUNTER_TROCKEN_veh_heavy26t_159381_3 into mobsim.
2024-02-08T11:46:02,840  WARN FreightAgentSource:86 inserting vehicleId=freight_lidl_DISCOUNTER_TROCKEN_veh_heavy26t_159381_4 into mobsim.
2024-02-08T11:46:02,840  WARN FreightAgentSource:86 inserting vehicleId=freight_lidl_DISCOUNTER_TROCKEN_veh_heavy26t_159381_5 into mobsim.
2024-02-08T11:46:02,840  WARN FreightAgentSource:86 inserting vehicleId=freight_lidl_DISCOUNTER_TROCKEN_veh_heavy26t_159381_6 into mobsim.
2024-02-08T11:46:02,840  WARN FreightAgentSource:86 inserting vehicleId=freight_lidl_DISCOUNTER_TROCKEN_veh_heavy26t_159381_7 into mobsim.
2024-02-08T11:46:02,840  WARN FreightAgentSource:86 inserting vehicleId=freight_lidl_DISCOUNTER_TROCKEN_veh_heavy26t_159381_8 into mobsim.
2024-02-08T11:46:02,840  WARN FreightAgentSource:86 inserting vehicleId=freight_lidl_DISCOUNTER_TROCKEN_veh_medium18t_159381_9 into mobsim.
2024-02-08T11:46:02,841  WARN FreightAgentSource:86 inserting vehicleId=freight_lidl_DISCOUNTER_TROCKEN_veh_heavy26t_159381_10 into mobsim.
2024-02-08T11:46:02,841  WARN FreightAgentSource:86 inserting vehicleId=freight_lidl_DISCOUNTER_TROCKEN_veh_heavy26t_159381_11 into mobsim.
2024-02-08T11:46:02,841  WARN FreightAgentSource:86 inserting vehicleId=freight_lidl_DISCOUNTER_TROCKEN_veh_medium18t_159381_12 into mobsim.
2024-02-08T11:46:02,841  WARN FreightAgentSource:86 inserting vehicleId=freight_lidl_DISCOUNTER_TROCKEN_veh_heavy26t_159381_13 into mobsim.
2024-02-08T11:46:02,841  WARN FreightAgentSource:86 inserting vehicleId=freight_lidl_DISCOUNTER_TROCKEN_veh_heavy26t_159381_14 into mobsim.
2024-02-08T11:46:02,841  WARN FreightAgentSource:86 inserting vehicleId=freight_lidl_DISCOUNTER_TROCKEN_veh_medium18t_159381_15 into mobsim.
2024-02-08T11:46:02,841  WARN FreightAgentSource:86 inserting vehicleId=freight_lidl_DISCOUNTER_TROCKEN_veh_heavy26t_159381_16 into mobsim.
2024-02-08T11:46:02,841  WARN FreightAgentSource:86 inserting vehicleId=freight_lidl_DISCOUNTER_TROCKEN_veh_medium18t_159381_17 into mobsim.
2024-02-08T11:46:02,841  WARN FreightAgentSource:86 inserting vehicleId=freight_lidl_DISCOUNTER_TROCKEN_veh_medium18t_159381_18 into mobsim.
2024-02-08T11:46:02,841  WARN FreightAgentSource:86 inserting vehicleId=freight_lidl_DISCOUNTER_TIEFKUEHL_veh_heavy26t_frozen_159381_1 into mobsim.
2024-02-08T11:46:02,842  WARN FreightAgentSource:86 inserting vehicleId=freight_lidl_DISCOUNTER_TIEFKUEHL_veh_heavy26t_frozen_159381_2 into mobsim.
2024-02-08T11:46:02,842  WARN FreightAgentSource:86 inserting vehicleId=freight_lidl_DISCOUNTER_TIEFKUEHL_veh_light8t_frozen_159381_3 into mobsim.
2024-02-08T11:46:02,920  INFO AbstractQNetsimEngine:426 Assigned 101707 nodes and 202939 links to QSimEngineRunner #0
2024-02-08T11:46:02,938  INFO EventsManagerImpl:115  event # 1
2024-02-08T11:46:02,942  INFO EventsManagerImpl:115  event # 4
2024-02-08T11:46:02,943  INFO EventsManagerImpl:115  event # 16
2024-02-08T11:46:02,944  INFO EventsManagerImpl:115  event # 64
2024-02-08T11:46:02,944  INFO AbstractQNetsimEngine:364 SIMULATION (QNetsimEngine) AT 09:00:00 : #links=0 #nodes=0
2024-02-08T11:46:02,949  INFO EventsManagerImpl:115  event # 256
2024-02-08T11:46:02,950  INFO QSim:566 SIMULATION (NEW QSim) AT 09:00:00 : #Veh=94 lost=0 simT=0.0s realT=0s; (s/r): 0.0
2024-02-08T11:46:02,992  INFO EventsManagerImpl:115  event # 1024
2024-02-08T11:46:03,257  INFO EventsManagerImpl:115  event # 4096
2024-02-08T11:46:03,277  INFO AbstractQNetsimEngine:364 SIMULATION (QNetsimEngine) AT 10:00:00 : #links=14 #nodes=1
2024-02-08T11:46:03,277  INFO QSim:566 SIMULATION (NEW QSim) AT 10:00:00 : #Veh=94 lost=0 simT=3600.0s realT=1s; (s/r): 3600.0
2024-02-08T11:46:03,459  INFO EventsManagerImpl:115  event # 16384
2024-02-08T11:46:03,667  INFO AbstractQNetsimEngine:364 SIMULATION (QNetsimEngine) AT 11:00:00 : #links=38 #nodes=7
2024-02-08T11:46:03,667  INFO QSim:566 SIMULATION (NEW QSim) AT 11:00:00 : #Veh=94 lost=0 simT=7200.0s realT=1s; (s/r): 7200.0
2024-02-08T11:46:03,787 ERROR BasicPlanAgentImpl:187 last activity of person driver agent id freight_lidl_DISCOUNTER_TROCKEN_veh_medium18t_35493_2 has end time < infty; setting it to infty
2024-02-08T11:46:03,788 ERROR BasicPlanAgentImpl:188  This message given only once.
2024-02-08T11:46:04,036  INFO AbstractQNetsimEngine:364 SIMULATION (QNetsimEngine) AT 12:00:00 : #links=45 #nodes=8
2024-02-08T11:46:04,036  INFO QSim:566 SIMULATION (NEW QSim) AT 12:00:00 : #Veh=93 lost=0 simT=10800.0s realT=2s; (s/r): 5400.0
2024-02-08T11:46:04,170  INFO EventsManagerImpl:115  event # 65536
2024-02-08T11:46:04,342  INFO AbstractQNetsimEngine:364 SIMULATION (QNetsimEngine) AT 13:00:00 : #links=48 #nodes=3
2024-02-08T11:46:04,342  INFO QSim:566 SIMULATION (NEW QSim) AT 13:00:00 : #Veh=81 lost=0 simT=14400.0s realT=2s; (s/r): 7200.0
2024-02-08T11:46:04,663  INFO AbstractQNetsimEngine:364 SIMULATION (QNetsimEngine) AT 14:00:00 : #links=23 #nodes=5
2024-02-08T11:46:04,663  INFO QSim:566 SIMULATION (NEW QSim) AT 14:00:00 : #Veh=50 lost=0 simT=18000.0s realT=2s; (s/r): 9000.0
2024-02-08T11:46:04,868  INFO AbstractQNetsimEngine:364 SIMULATION (QNetsimEngine) AT 15:00:00 : #links=23 #nodes=1
2024-02-08T11:46:04,868  INFO QSim:566 SIMULATION (NEW QSim) AT 15:00:00 : #Veh=38 lost=0 simT=21600.0s realT=2s; (s/r): 10800.0
2024-02-08T11:46:05,089  INFO AbstractQNetsimEngine:364 SIMULATION (QNetsimEngine) AT 16:00:00 : #links=19 #nodes=3
2024-02-08T11:46:05,089  INFO QSim:566 SIMULATION (NEW QSim) AT 16:00:00 : #Veh=34 lost=0 simT=25200.0s realT=3s; (s/r): 8400.0
2024-02-08T11:46:05,301  INFO AbstractQNetsimEngine:364 SIMULATION (QNetsimEngine) AT 17:00:00 : #links=14 #nodes=3
2024-02-08T11:46:05,301  INFO QSim:566 SIMULATION (NEW QSim) AT 17:00:00 : #Veh=29 lost=0 simT=28800.0s realT=3s; (s/r): 9600.0
2024-02-08T11:46:05,516  INFO AbstractQNetsimEngine:364 SIMULATION (QNetsimEngine) AT 18:00:00 : #links=9 #nodes=2
2024-02-08T11:46:05,516  INFO QSim:566 SIMULATION (NEW QSim) AT 18:00:00 : #Veh=21 lost=0 simT=32400.0s realT=3s; (s/r): 10800.0
2024-02-08T11:46:05,740  INFO AbstractQNetsimEngine:364 SIMULATION (QNetsimEngine) AT 19:00:00 : #links=4 #nodes=2
2024-02-08T11:46:05,740  INFO QSim:566 SIMULATION (NEW QSim) AT 19:00:00 : #Veh=6 lost=0 simT=36000.0s realT=3s; (s/r): 12000.0
2024-02-08T11:46:05,879  INFO Gbl:196 Thread performance: Thread=class org.matsim.core.events.SimStepParallelEventsManagerImpl$ProcessEventsRunnable0  cpu-time=0.21875sec
2024-02-08T11:46:05,879  INFO AbstractController$9:237 ### ITERATION 0 fires after mobsim event
2024-02-08T11:46:05,880  INFO ControlerListenerManagerImpl:269 calling notifyAfterMobsim on org.matsim.analysis.LegTimesControlerListener with priority 0.0
2024-02-08T11:46:05,884  INFO LegTimesControlerListener:51 [0] average trip (probably: leg) duration is: 890 seconds = 00:14:50
2024-02-08T11:46:05,884  INFO ControlerListenerManagerImpl:269 calling notifyAfterMobsim on org.matsim.core.events.MobsimScopeEventHandling with priority 0.0
2024-02-08T11:46:05,885  INFO ControlerListenerManagerImpl:269 calling notifyAfterMobsim on org.matsim.core.scoring.EventsToActivities$1 with priority 0.0
2024-02-08T11:46:05,886  INFO ControlerListenerManagerImpl:272 [it.0] all ControlerAfterMobsimListeners called.
2024-02-08T11:46:05,886  INFO AbstractController$4:162 ### ITERATION 0 fires scoring event
2024-02-08T11:46:05,886  INFO ControlerListenerManagerImpl:197 calling notifyScoring on org.matsim.core.scoring.PlansScoringImpl with priority 0.0
2024-02-08T11:46:05,888  INFO NewScoreAssignerImpl:58 it: 0 msaStart: null
2024-02-08T11:46:05,888  INFO ControlerListenerManagerImpl:205 calling notifyScoring on org.matsim.freight.carriers.controler.CarrierControlerListener with priority 0.0
2024-02-08T11:46:05,889  WARN CarrierAgent:182 score=-Infinity
2024-02-08T11:46:05,889  WARN CarrierAgent:182 score=-Infinity
2024-02-08T11:46:05,889  WARN CarrierAgent:182 score=-Infinity
2024-02-08T11:46:05,889  WARN CarrierAgent:182 score=-Infinity
2024-02-08T11:46:05,889  WARN CarrierAgent:182 score=-Infinity
2024-02-08T11:46:05,889  WARN CarrierAgent:182 score=-Infinity
2024-02-08T11:46:05,889  INFO ControlerListenerManagerImpl:209 [it.0] all ControlerScoringListeners called.
2024-02-08T11:46:05,890  INFO AbstractController$5:170 ### ITERATION 0 fires iteration end event
2024-02-08T11:46:05,890  INFO ControlerListenerManagerImpl:172 calling notifyIterationEnds on org.matsim.core.controler.corelisteners.EventsHandlingImpl with priority 0.0
2024-02-08T11:46:05,891  INFO EventsManagerImpl:159 removing Event-Handler: org.matsim.core.events.algorithms.EventWriterXML
2024-02-08T11:46:05,891  INFO EventsManagerImpl:159 removing Event-Handler: org.matsim.core.events.algorithms.EventWriterXML
2024-02-08T11:46:05,892  INFO ControlerListenerManagerImpl:172 calling notifyIterationEnds on org.matsim.core.scoring.PlansScoringImpl with priority 0.0
2024-02-08T11:46:05,892  INFO ControlerListenerManagerImpl:180 calling notifyIterationEnds on org.matsim.counts.CountsControlerListener with priority 0.0
2024-02-08T11:46:05,892  INFO ControlerListenerManagerImpl:180 calling notifyIterationEnds on org.matsim.analysis.ModeStatsControlerListener with priority 0.0
2024-02-08T11:46:05,892  INFO ModeStatsControlerListener:133 Mode shares over all 0.0 trips found. MainModeIdentifier: class org.matsim.core.router.DefaultAnalysisMainModeIdentifier
2024-02-08T11:46:05,893  INFO ControlerListenerManagerImpl:180 calling notifyIterationEnds on org.matsim.analysis.ScoreStatsControlerListener with priority 0.0
2024-02-08T11:46:05,894  INFO ScoreStatsControlerListener:154 -- avg. score of the executed plan of each agent: NaN
2024-02-08T11:46:05,894  INFO ScoreStatsControlerListener:155 -- avg. score of the worst plan of each agent: NaN
2024-02-08T11:46:05,894  INFO ScoreStatsControlerListener:156 -- avg. of the avg. plan score per agent: NaN
2024-02-08T11:46:05,894  INFO ScoreStatsControlerListener:157 -- avg. score of the best plan of each agent: NaN
2024-02-08T11:46:05,900  INFO ControlerListenerManagerImpl:180 calling notifyIterationEnds on org.matsim.analysis.IterationTravelStatsControlerListener with priority 0.0
2024-02-08T11:46:05,905  INFO TravelDistanceStats:115 -- average leg distance per plan (executed plans only): 0.0 meters
2024-02-08T11:46:05,906  INFO TravelDistanceStats:116 average leg distance per Person (executed plans only): NaN meters (statistic on all 0 legs which have a finite distance)
2024-02-08T11:46:05,906  INFO TravelDistanceStats:117 -- average trip distance per plan (executed plans only): 0.0 meters
2024-02-08T11:46:05,906  INFO TravelDistanceStats:118 average trip distance per Person (executed plans only): NaN meters (statistic on all 0 trips which have a finite distance)
2024-02-08T11:46:05,906  INFO TravelDistanceStats:119 (TravelDistanceStats takes an average over all legs where the simulation reports travelled (network) distances
2024-02-08T11:46:05,906  INFO TravelDistanceStats:120 (and teleported legs whose route contains a distance.)
2024-02-08T11:46:05,925  INFO ActivityWriter:39 Writing all Activities to activitiescsv
2024-02-08T11:46:05,927  INFO ActivityWriter:59 ...done
2024-02-08T11:46:05,927  INFO ControlerListenerManagerImpl:180 calling notifyIterationEnds on org.matsim.analysis.LegHistogramListener with priority 0.0
2024-02-08T11:46:05,934  INFO LegHistogramListener:73 number of legs:	0	100%
2024-02-08T11:46:06,302  INFO ControlerListenerManagerImpl:180 calling notifyIterationEnds on org.matsim.analysis.LinkStatsControlerListener with priority 0.0
2024-02-08T11:46:06,302  INFO ControlerListenerManagerImpl:184 [it.0] all ControlerIterationEndsListeners called.
2024-02-08T11:46:06,386  INFO AbstractController:184 ### ITERATION 0 ENDS
2024-02-08T11:46:06,387  INFO AbstractController:185 ###################################################
2024-02-08T11:46:06,387  INFO MatsimRuntimeModifications:80 S H U T D O W N   ---   start shutdown.
2024-02-08T11:46:06,387  INFO ControlerListenerManagerImpl:128 calling notifyShutdown on org.matsim.core.controler.corelisteners.EventsHandlingImpl with priority 0.0
2024-02-08T11:46:06,387  INFO ControlerListenerManagerImpl:128 calling notifyShutdown on org.matsim.core.controler.corelisteners.DumpDataAtEndImpl with priority 0.0
2024-02-08T11:46:06,389  INFO Counter:75 [ParallelPopulationWriterV6] dumped person # 0
2024-02-08T11:46:06,390  INFO PopulationWriter:150 Population written to: ./output/freightDashboard/output_plans.xml.gz
2024-02-08T11:46:06,390  INFO Counter:75 [PopulationWriter] dumped person # 0
2024-02-08T11:46:06,391  INFO NetworkWriter:70 Writing network to file: ./output/freightDashboard/output_network.xml.gz...
2024-02-08T11:46:08,474  INFO NetworkWriter:73 done.
2024-02-08T11:46:08,478  INFO Config:550 setting context to [file:/C:/Users/anaue/Documents/TUBerlin/MatSim/matsim-code-examples-new/]
2024-02-08T11:46:08,480  INFO Config:550 setting context to [file:/C:/Users/anaue/Documents/TUBerlin/MatSim/matsim-code-examples-new/]
2024-02-08T11:46:08,483  INFO Config:550 setting context to [file:/C:/Users/anaue/Documents/TUBerlin/MatSim/matsim-code-examples-new/]
2024-02-08T11:46:08,485  INFO Config:550 setting context to [file:/C:/Users/anaue/Documents/TUBerlin/MatSim/matsim-code-examples-new/]
2024-02-08T11:46:08,487  INFO Config:550 setting context to [file:/C:/Users/anaue/Documents/TUBerlin/MatSim/matsim-code-examples-new/]
2024-02-08T11:46:08,489  INFO Config:550 setting context to [file:/C:/Users/anaue/Documents/TUBerlin/MatSim/matsim-code-examples-new/]
2024-02-08T11:46:08,490  INFO Config:550 setting context to [file:/C:/Users/anaue/Documents/TUBerlin/MatSim/matsim-code-examples-new/]
2024-02-08T11:46:08,491  INFO Config:550 setting context to [file:/C:/Users/anaue/Documents/TUBerlin/MatSim/matsim-code-examples-new/]
2024-02-08T11:46:08,492  INFO Config:550 setting context to [file:/C:/Users/anaue/Documents/TUBerlin/MatSim/matsim-code-examples-new/]
2024-02-08T11:46:08,493  INFO Config:550 setting context to [file:/C:/Users/anaue/Documents/TUBerlin/MatSim/matsim-code-examples-new/]
2024-02-08T11:46:08,494  INFO Config:550 setting context to [file:/C:/Users/anaue/Documents/TUBerlin/MatSim/matsim-code-examples-new/]
2024-02-08T11:46:08,495  INFO Config:550 setting context to [file:/C:/Users/anaue/Documents/TUBerlin/MatSim/matsim-code-examples-new/]
2024-02-08T11:46:08,496  INFO Config:550 setting context to [file:/C:/Users/anaue/Documents/TUBerlin/MatSim/matsim-code-examples-new/]
2024-02-08T11:46:08,497  INFO Config:550 setting context to [file:/C:/Users/anaue/Documents/TUBerlin/MatSim/matsim-code-examples-new/]
2024-02-08T11:46:08,498  INFO Config:550 setting context to [file:/C:/Users/anaue/Documents/TUBerlin/MatSim/matsim-code-examples-new/]
2024-02-08T11:46:08,501  INFO Config:550 setting context to [file:/C:/Users/anaue/Documents/TUBerlin/MatSim/matsim-code-examples-new/]
2024-02-08T11:46:08,502  INFO Config:550 setting context to [file:/C:/Users/anaue/Documents/TUBerlin/MatSim/matsim-code-examples-new/]
2024-02-08T11:46:08,503  INFO Config:550 setting context to [file:/C:/Users/anaue/Documents/TUBerlin/MatSim/matsim-code-examples-new/]
2024-02-08T11:46:08,504  INFO Config:550 setting context to [file:/C:/Users/anaue/Documents/TUBerlin/MatSim/matsim-code-examples-new/]
2024-02-08T11:46:08,504  INFO Config:550 setting context to [file:/C:/Users/anaue/Documents/TUBerlin/MatSim/matsim-code-examples-new/]
2024-02-08T11:46:08,505  INFO Config:550 setting context to [file:/C:/Users/anaue/Documents/TUBerlin/MatSim/matsim-code-examples-new/]
2024-02-08T11:46:08,508  INFO Config:550 setting context to [file:/C:/Users/anaue/Documents/TUBerlin/MatSim/matsim-code-examples-new/]
2024-02-08T11:46:08,508  INFO Config:550 setting context to [file:/C:/Users/anaue/Documents/TUBerlin/MatSim/matsim-code-examples-new/]
2024-02-08T11:46:08,509  INFO Config:550 setting context to [file:/C:/Users/anaue/Documents/TUBerlin/MatSim/matsim-code-examples-new/]
2024-02-08T11:46:08,510  INFO Config:550 setting context to [file:/C:/Users/anaue/Documents/TUBerlin/MatSim/matsim-code-examples-new/]
2024-02-08T11:46:08,510  INFO Config:550 setting context to [file:/C:/Users/anaue/Documents/TUBerlin/MatSim/matsim-code-examples-new/]
2024-02-08T11:46:08,510  INFO Config:550 setting context to [file:/C:/Users/anaue/Documents/TUBerlin/MatSim/matsim-code-examples-new/]
2024-02-08T11:46:08,512  INFO Config:550 setting context to [file:/C:/Users/anaue/Documents/TUBerlin/MatSim/matsim-code-examples-new/]
2024-02-08T11:46:08,517  INFO MatsimVehicleWriter:49 about to write vehicles to: ./output/freightDashboard/output_vehicles.xml.gz
2024-02-08T11:46:08,517  INFO VehicleWriterV2:64 about to write vehicles to: ./output/freightDashboard/output_vehicles.xml.gz
2024-02-08T11:46:08,523  INFO MatsimVehicleWriter:49 about to write vehicles to: ./output/freightDashboard/output_allVehicles.xml.gz
2024-02-08T11:46:08,523  INFO VehicleWriterV2:64 about to write vehicles to: ./output/freightDashboard/output_allVehicles.xml.gz
2024-02-08T11:46:08,526  INFO HouseholdsWriterV10:66 about to write  households to: ./output/freightDashboard/output_households.xml.gz
2024-02-08T11:46:08,527  INFO Counter:75 [HouseholdsWriter] wrote household # 0
2024-02-08T11:46:08,531  INFO CountsWriterV2:45 Write Counts to ./output/freightDashboard/output_counts.xml.gz
2024-02-08T11:46:08,542  INFO ControlerListenerManagerImpl:135 calling notifyShutdown on org.matsim.analysis.ScoreStatsControlerListener with priority 0.0
2024-02-08T11:46:08,542  INFO ControlerListenerManagerImpl:135 calling notifyShutdown on org.matsim.analysis.IterationTravelStatsControlerListener with priority 0.0
2024-02-08T11:46:08,543  INFO PersonWriter:36 Writing all Persons to personscsv
2024-02-08T11:46:08,545  INFO PersonWriter:54 ...done
2024-02-08T11:46:08,545  INFO ControlerListenerManagerImpl:135 calling notifyShutdown on org.matsim.analysis.LinkStatsControlerListener with priority 0.0
2024-02-08T11:46:10,766  INFO ControlerListenerManagerImpl:135 calling notifyShutdown on org.matsim.freight.carriers.controler.CarrierModule$$Lambda$291/0x0000000801460220 with priority 0.0
2024-02-08T11:46:10,767  INFO CarrierPlanXmlWriterV2_1:84 write carrier plans
2024-02-08T11:46:10,807  INFO CarrierPlanXmlWriterV2_1:99 done
2024-02-08T11:46:10,808  INFO MatsimVehicleWriter:49 about to write vehicles to: ./output/freightDashboard/output_carriersVehicleTypes.xml.gz
2024-02-08T11:46:10,808  INFO VehicleWriterV2:64 about to write vehicles to: ./output/freightDashboard/output_carriersVehicleTypes.xml.gz
2024-02-08T11:46:10,810  INFO ControlerListenerManagerImpl:138 all ControlerShutdownListeners called.
2024-02-08T11:46:10,810  INFO MatsimRuntimeModifications:103 S H U T D O W N   ---   shutdown completed.
2024-02-08T11:46:10,810  INFO OutputDirectoryLogging:172 closing the logfile, i.e. messages sent to the logger after this message are not written to the logfile.
